92
Generated by GASEIO
H    0    0    0
He    1    1    1
Li    2    2    2
Be    3    3    3
B    4    4    4
C    5    5    5
N    6    6    6
O    7    7    7
F    8    8    8
Ne    9    9    9
Na    10    10    10
Mg    11    11    11
Al    12    12    12
Si    13    13    13
P    14    14    14
S    15    15    15
Cl    16    16    16
Ar    17    17    17
K    18    18    18
Ca    19    19    19
Sc    20    20    20
Ti    21    21    21
V    22    22    22
Cr    23    23    23
Mn    24    24    24
Fe    25    25    25
Co    26    26    26
Ni    27    27    27
Cu    28    28    28
Zn    29    29    29
Ga    30    30    30
Ge    31    31    31
As    32    32    32
Se    33    33    33
Br    34    34    34
Kr    35    35    35
Rb    36    36    36
Sr    37    37    37
Y    38    38    38
Zr    39    39    39
Nb    40    40    40
Mo    41    41    41
Tc    42    42    42
Ru    43    43    43
Rh    44    44    44
Pd    45    45    45
Ag    46    46    46
Cd    47    47    47
In    48    48    48
Sn    49    49    49
Sb    50    50    50
Te    51    51    51
I    52    52    52
Xe    53    53    53
Cs    54    54    54
Ba    55    55    55
La    56    56    56
Ce    57    57    57
Pr    58    58    58
Nd    59    59    59
Pm    60    60    60
Sm    61    61    61
Eu    62    62    62
Gd    63    63    63
Tb    64    64    64
Dy    65    65    65
Ho    66    66    66
Er    67    67    67
Tm    68    68    68
Yb    69    69    69
Lu    70    70    70
Hf    71    71    71
Ta    72    72    72
W    73    73    73
Re    74    74    74
Os    75    75    75
Ir    76    76    76
Pt    77    77    77
Au    78    78    78
Hg    79    79    79
Tl    80    80    80
Pb    81    81    81
Bi    82    82    82
Po    83    83    83
At    84    84    84
Rn    85    85    85
Fr    86    86    86
Ra    87    87    87
Ac    88    88    88
Th    89    89    89
Pa    90    90    90
U    91    91    91
